! Generated by qgis2fds <0.30> on QGIS <3.12.3-București>
! QGIS file: <...retools/qgis2fds/verification/golden_gate/golden_gate.qgs>
! Selected UTM CRS: <WGS 84 / UTM zone 10N>
! Terrain extent: <543054.6,4185866.9 : 546653.2,4188750.1>
! DEM layer: <US_DEM2016>
! Landuse layer: <US_200FBFM13>
! Landuse type: <Landfire FBFM13>
! Domain Origin: <544903.8, 4187650.0>
! Domain Origin Link: <http://www.openstreetmap.org/?mlat=37.835173&mlon=-122.489693&zoom=12>
! Fire Origin: <544909.5, 4187377.0>
! Fire Origin Link: <http://www.openstreetmap.org/?mlat=37.832712&mlon=-122.489645&zoom=12>
! Date: <mar, 19 mag 2020, 13:07:31>
 
&HEAD CHID='golden_gate' TITLE='Description of golden_gate' /
&TIME T_END=1. /
&RADI RADIATION=F /
 
 MISC ORIGIN_LAT=37.8351730 ORIGIN_LON=-122.4896930 NORTH_BEARING=0. / ! New
&MISC TERRAIN_CASE=T SIMULATION_MODE='SVLES' TERRAIN_IMAGE='golden_gate_texture.png' /
 
! Reaction
! from Karlsson, Quintiere 'Enclosure Fire Dyn', CRC Press, 2000
&REAC ID='Wood' FUEL='PROPANE', SOOT_YIELD=0.015 /
 
! Domain and its boundary conditions
&MESH IJK=50,50,50 XB=-500.000,500.000,-500.000,500.000,-10.000,1000.000 /
&TRNZ MESH_NUMBER=0 IDERIV=1 CC=0 PC=0.5 /
&VENT MB='XMIN' SURF_ID='OPEN' /
&VENT MB='XMAX' SURF_ID='OPEN' /
&VENT MB='YMIN' SURF_ID='OPEN' /
&VENT MB='YMAX' SURF_ID='OPEN' /
&VENT MB='ZMAX' SURF_ID='OPEN' /
 
! Fire origin
&SURF ID='Ignition' VEG_LSET_IGNITE_TIME=1800. COLOR='RED' /
&VENT XB=0.716,10.716,-278.025,-268.025,-10.000,-10.000 SURF_ID='Ignition' GEOM=T /
 
! Output quantities
&BNDF QUANTITY='BURNING RATE' /
&SLCF DB='ZMID', QUANTITY='VELOCITY', VECTOR=T /
&SLCF AGL_SLICE=25., QUANTITY='VELOCITY', VECTOR=T /
&SLCF AGL_SLICE=1., QUANTITY='LEVEL SET VALUE' /
 
! Wind
&WIND SPEED=1., RAMP_SPEED='ws', RAMP_DIRECTION='wd', LATITUDE=37.8351730, DT_MEAN_FORCING=20. /
&RAMP ID='ws', T=0, F=0. /
&RAMP ID='ws', T=600, F=10. /
&RAMP ID='ws', T=1200, F=20. /
&RAMP ID='wd', T=0, F=330. /
&RAMP ID='wd', T=600, F=300. /
&RAMP ID='wd', T=1200, F=270. /
 
! Boundary conditions
! 13 Anderson Fire Behavior Fuel Models
&SURF ID='A01' RGB=255,254,212 VEG_LSET_FUEL_INDEX= 1 HRRPUA=100. RAMP_Q='f01' /
&SURF ID='A02' RGB=255,253,102 VEG_LSET_FUEL_INDEX= 2 HRRPUA=500. RAMP_Q='f02' /
&SURF ID='A03' RGB=236,212, 99 VEG_LSET_FUEL_INDEX= 3 HRRPUA=500. RAMP_Q='f03' /
&SURF ID='A04' RGB=254,193,119 VEG_LSET_FUEL_INDEX= 4 HRRPUA=500. RAMP_Q='f04' /
&SURF ID='A05' RGB=249,197, 92 VEG_LSET_FUEL_INDEX= 5 HRRPUA=500. RAMP_Q='f05' /
&SURF ID='A06' RGB=217,196,152 VEG_LSET_FUEL_INDEX= 6 HRRPUA=500. RAMP_Q='f06' /
&SURF ID='A07' RGB=170,155,127 VEG_LSET_FUEL_INDEX= 7 HRRPUA=500. RAMP_Q='f07' /
&SURF ID='A08' RGB=229,253,214 VEG_LSET_FUEL_INDEX= 8 HRRPUA=500. RAMP_Q='f08' /
&SURF ID='A09' RGB=162,191, 90 VEG_LSET_FUEL_INDEX= 9 HRRPUA=500. RAMP_Q='f09' /
&SURF ID='A10' RGB=114,154, 85 VEG_LSET_FUEL_INDEX=10 HRRPUA=500. RAMP_Q='f10' /
&SURF ID='A11' RGB=235,212,253 VEG_LSET_FUEL_INDEX=11 HRRPUA=500. RAMP_Q='f11' /
&SURF ID='A12' RGB=163,177,243 VEG_LSET_FUEL_INDEX=12 HRRPUA=500. RAMP_Q='f12' /
&SURF ID='A13' RGB=  0,  0,  0 VEG_LSET_FUEL_INDEX=13 HRRPUA=500. RAMP_Q='f13' /
&SURF ID='Urban' RGB=186,119, 80 /
&SURF ID='Snow-Ice' RGB=234,234,234 /
&SURF ID='Agricolture' RGB=253,242,242 /
&SURF ID='Water' RGB=137,183,221 /
&SURF ID='Barren' RGB=133,153,156 /
&SURF ID='NA' RGB=255,255,255 /
 
&RAMP ID='f01', T= 0., F=0. /
&RAMP ID='f01', T= 5., F=1. /
&RAMP ID='f01', T=25., F=1. /
&RAMP ID='f01', T=30., F=0. /
 
&RAMP ID='f02', T=  0., F=0. /
&RAMP ID='f02', T=  5., F=1. /
&RAMP ID='f02', T=115., F=1. /
&RAMP ID='f02', T=120., F=0. /
 
&RAMP ID='f03', T=  0., F=0. /
&RAMP ID='f03', T=  5., F=1. /
&RAMP ID='f03', T=115., F=1. /
&RAMP ID='f03', T=120., F=0. /
 
&RAMP ID='f04', T=  0., F=0. /
&RAMP ID='f04', T=  5., F=1. /
&RAMP ID='f04', T=115., F=1. /
&RAMP ID='f04', T=120., F=0. /
 
&RAMP ID='f05', T= 0., F=0. /
&RAMP ID='f05', T= 5., F=1. /
&RAMP ID='f05', T=35., F=1. /
&RAMP ID='f05', T=40., F=0. /
 
&RAMP ID='f06', T=  0., F=0. /
&RAMP ID='f06', T=  5., F=1. /
&RAMP ID='f06', T=115., F=1. /
&RAMP ID='f06', T=120., F=0. /
 
&RAMP ID='f07', T=  0., F=0. /
&RAMP ID='f07', T=  5., F=1. /
&RAMP ID='f07', T=115., F=1. /
&RAMP ID='f07', T=120., F=0. /
 
&RAMP ID='f08', T=  0., F=0. /
&RAMP ID='f08', T=  5., F=1. /
&RAMP ID='f08', T=115., F=1. /
&RAMP ID='f08', T=120., F=0. /
 
&RAMP ID='f09', T=  0., F=0. /
&RAMP ID='f09', T=  5., F=1. /
&RAMP ID='f09', T=115., F=1. /
&RAMP ID='f09', T=120., F=0. /
 
&RAMP ID='f10', T= 0., F=0. /
&RAMP ID='f10', T= 5., F=1. /
&RAMP ID='f10', T=85., F=1. /
&RAMP ID='f10', T=90., F=0. /
 
&RAMP ID='f11', T= 0., F=0. /
&RAMP ID='f11', T= 5., F=1. /
&RAMP ID='f11', T=85., F=1. /
&RAMP ID='f11', T=90., F=0. /
 
&RAMP ID='f12', T= 0., F=0. /
&RAMP ID='f12', T= 5., F=1. /
&RAMP ID='f12', T=85., F=1. /
&RAMP ID='f12', T=90., F=0. /
 
&RAMP ID='f13', T= 0., F=0. /
&RAMP ID='f13', T= 5., F=1. /
&RAMP ID='f13', T=85., F=1. /
&RAMP ID='f13', T=90., F=0. /
 
! Terrain
&GEOM ID='Terrain' IS_TERRAIN=T EXTEND_TERRAIN=F
      SURF_ID='A01','A02','A03','A04','A05','A06','A07','A08','A09','A10','A11','A12','A13',
            'Urban','Snow-Ice','Agricolture','Water','Barren','NA'
      VERTS=-2626.297,855.924,57.000,
            -2597.229,864.254,52.500,
            -2568.161,872.584,48.000,
            -2539.092,880.914,47.000,
            -2510.024,889.244,44.500,
            -2480.956,897.574,42.500,
            -2451.888,905.904,41.000,
            -2422.820,914.234,39.000,
            -2393.751,922.564,38.000,
            -2364.683,930.894,38.000,
            -2335.615,939.224,38.000,
            -2306.547,947.554,35.500,
            -2277.479,955.884,33.000,
            -2248.410,964.214,34.000,
            -2219.342,972.544,36.500,
            -2190.274,980.874,38.500,
            -2161.206,989.204,39.500,
            -2132.138,997.534,40.500,
            -2103.069,1005.864,41.500,
            -2074.001,1014.194,44.000,
            -2044.933,1022.524,49.500,
            -2015.865,1030.854,56.000,
            -1986.797,1039.184,62.500,
            -1957.728,1047.514,68.000,
            -1928.660,1055.844,71.500,
            -1899.592,1064.174,75.500,
            -1870.524,1072.504,80.500,
            -1841.455,1080.834,85.000,
            -1812.387,1089.164,88.000,
            -1783.319,1097.494,92.000,
            -1754.251,1105.824,99.000,
            -1725.183,1114.154,107.000,
            -1696.114,1122.484,116.000,
            -1667.046,1130.814,123.500,
            -1637.978,1139.144,127.500,
            -1608.910,1147.474,131.000,
            -1579.841,1155.804,136.000,
            -1550.773,1164.134,140.500,
            -1521.705,1172.464,143.500,
            -1492.637,1180.795,144.500,
            -1463.569,1189.125,144.500,
            -1434.500,1197.455,147.000,
            -1405.432,1205.785,152.000,
            -1376.364,1214.115,160.500,
            -1347.296,1222.445,171.500,
            -1318.227,1230.775,183.000,
            -1289.159,1239.105,193.500,
            -1260.091,1247.435,201.500,
            -1231.023,1255.766,206.000,
            -1201.954,1264.096,208.000,
            -1172.886,1272.426,210.500,
            -1143.818,1280.756,214.500,
            -1114.750,1289.086,220.500,
            -1085.681,1297.416,227.500,
            -1056.613,1305.746,234.000,
            -1027.545,1314.077,236.000,
            -998.477,1322.407,233.500,
            -969.408,1330.737,232.000,
            -940.340,1339.067,230.000,
            -911.272,1347.397,228.000,
            -882.204,1355.727,228.000,
            -853.135,1364.058,228.500,
            -824.067,1372.388,230.000,
            -794.999,1380.718,231.000,
            -765.931,1389.048,227.000,
            -736.862,1397.378,225.500,
            -707.794,1405.709,224.500,
            -678.726,1414.039,222.000,
            -649.658,1422.369,222.000,
            -620.589,1430.699,217.500,
            -591.521,1439.029,211.000,
            -562.453,1447.360,207.000,
            -533.385,1455.690,202.500,
            -504.316,1464.020,194.000,
            -475.248,1472.350,187.000,
            -446.180,1480.681,194.000,
            -417.112,1489.011,212.500,
            -388.043,1497.341,231.000,
            -358.975,1505.671,248.000,
            -329.907,1514.002,261.000,
            -300.839,1522.332,270.500,
            -271.770,1530.662,279.500,
            -242.702,1538.992,288.000,
            -213.634,1547.323,287.500,
            -184.566,1555.653,275.500,
            -155.497,1563.983,258.000,
            -126.429,1572.313,238.500,
            -97.361,1580.644,218.000,
            -68.292,1588.974,195.500,
            -39.224,1597.304,180.500,
            -10.156,1605.635,170.000,
            18.912,1613.965,153.500,
            47.981,1622.295,138.500,
            77.049,1630.626,126.500,
            106.117,1638.956,117.500,
            135.186,1647.286,113.500,
            164.254,1655.617,112.500,
            193.322,1663.947,113.500,
            222.390,1672.277,113.500,
            251.459,1680.608,110.500,
            280.527,1688.938,107.000,
            309.595,1697.268,104.000,
            338.663,1705.599,97.500,
            367.732,1713.929,89.500,
            396.800,1722.259,82.000,
            425.868,1730.590,71.500,
            454.937,1738.920,61.000,
            484.005,1747.251,55.000,
            513.073,1755.581,53.000,
            542.142,1763.911,52.500,
            571.210,1772.242,52.000,
            600.278,1780.572,51.000,
            629.346,1788.902,50.000,
            658.415,1797.233,49.000,
            687.483,1805.563,48.000,
            716.551,1813.894,49.000,
            745.620,1822.224,49.500,
            774.688,1830.555,47.000,
            803.756,1838.885,41.500,
            832.825,1847.215,32.000,
            861.893,1855.546,18.500,
            890.961,1863.876,4.000,
            920.029,1872.207,-3.000,
            949.098,1880.537,-2.500,
            978.166,1888.868,-1.500,
            1007.234,1897.198,-1.000,
            1036.303,1905.529,-1.000,
            1065.371,1913.859,-1.000,
            1094.439,1922.189,-1.000,
            1123.508,1930.520,-1.000,
            1152.576,1938.850,-0.500,
            1181.644,1947.181,0.000,
            1210.713,1955.511,0.000,
            1239.781,1963.842,0.000,
            1268.849,1972.172,0.000,
            1297.918,1980.503,0.000,
            1326.986,1988.833,0.000,
            1356.054,1997.164,0.000,
            1385.122,2005.494,0.000,
            1414.191,2013.825,0.000,
            1443.259,2022.155,0.000,
            -2617.809,827.418,56.500,
            -2588.741,835.748,52.750,
            -2559.673,844.078,47.500,
            -2530.604,852.408,45.000,
            -2501.536,860.738,43.250,
            -2472.468,869.068,42.000,
            -2443.400,877.398,40.750,
            -2414.332,885.728,38.750,
            -2385.263,894.058,37.500,
            -2356.195,902.388,37.500,
            -2327.127,910.718,37.000,
            -2298.059,919.048,34.250,
            -2268.991,927.378,33.000,
            -2239.922,935.708,35.000,
            -2210.854,944.038,37.250,
            -2181.786,952.368,39.000,
            -2152.718,960.698,40.250,
            -2123.650,969.028,41.500,
            -2094.581,977.358,42.750,
            -2065.513,985.688,45.500,
            -2036.445,994.018,50.500,
            -2007.377,1002.348,56.500,
            -1978.309,1010.678,63.000,
            -1949.240,1019.008,68.250,
            -1920.172,1027.338,71.250,
            -1891.104,1035.668,74.500,
            -1862.036,1043.998,78.750,
            -1832.968,1052.328,82.750,
            -1803.899,1060.658,85.750,
            -1774.831,1068.988,90.250,
            -1745.763,1077.318,97.000,
            -1716.695,1085.648,104.250,
            -1687.626,1093.978,112.750,
            -1658.558,1102.308,120.000,
            -1629.490,1110.638,124.000,
            -1600.422,1118.968,127.750,
            -1571.354,1127.298,133.000,
            -1542.285,1135.628,137.000,
            -1513.217,1143.958,139.250,
            -1484.149,1152.289,139.750,
            -1455.081,1160.619,140.250,
            -1426.012,1168.949,144.500,
            -1396.944,1177.279,151.750,
            -1367.876,1185.609,162.000,
            -1338.808,1193.939,172.750,
            -1309.739,1202.269,182.250,
            -1280.671,1210.599,191.000,
            -1251.603,1218.929,198.000,
            -1222.535,1227.260,201.750,
            -1193.467,1235.590,203.750,
            -1164.398,1243.920,207.000,
            -1135.330,1252.250,212.500,
            -1106.262,1260.580,219.500,
            -1077.194,1268.910,226.750,
            -1048.125,1277.240,233.750,
            -1019.057,1285.571,235.250,
            -989.989,1293.901,230.750,
            -960.921,1302.231,227.250,
            -931.852,1310.561,225.000,
            -902.784,1318.891,223.750,
            -873.716,1327.221,223.750,
            -844.648,1335.552,222.500,
            -815.579,1343.882,223.500,
            -786.511,1352.212,225.250,
            -757.443,1360.542,221.000,
            -728.375,1368.872,219.250,
            -699.306,1377.203,218.750,
            -670.238,1385.533,216.250,
            -641.170,1393.863,215.750,
            -612.102,1402.193,212.500,
            -583.033,1410.523,206.750,
            -553.965,1418.854,203.500,
            -524.897,1427.184,199.250,
            -495.829,1435.514,190.000,
            -466.760,1443.844,183.250,
            -437.692,1452.175,191.250,
            -408.624,1460.505,210.500,
            -379.555,1468.835,228.250,
            -350.487,1477.165,243.500,
            -321.419,1485.496,255.250,
            -292.351,1493.826,265.000,
            -263.282,1502.156,275.000,
            -234.214,1510.486,285.250,
            -205.146,1518.817,286.500,
            -176.078,1527.147,274.750,
            -147.009,1535.477,256.000,
            -117.941,1543.808,235.000,
            -88.873,1552.138,215.250,
            -59.805,1560.468,193.500,
            -30.736,1568.798,178.750,
            -1.668,1577.129,169.250,
            27.400,1585.459,152.750,
            56.469,1593.789,135.750,
            85.537,1602.120,122.000,
            114.605,1610.450,111.750,
            143.673,1618.780,105.500,
            172.742,1627.111,103.000,
            201.810,1635.441,103.750,
            230.878,1643.771,103.500,
            259.947,1652.102,101.000,
            289.015,1660.432,97.250,
            318.083,1668.762,94.750,
            347.151,1677.093,92.250,
            376.220,1685.423,87.000,
            405.288,1693.753,80.250,
            434.356,1702.084,70.750,
            463.425,1710.414,59.500,
            492.493,1718.745,51.500,
            521.561,1727.075,49.000,
            550.629,1735.405,48.500,
            579.698,1743.736,48.250,
            608.766,1752.066,47.750,
            637.834,1760.397,46.500,
            666.903,1768.727,45.000,
            695.971,1777.057,44.000,
            725.039,1785.388,44.750,
            754.108,1793.718,44.750,
            783.176,1802.049,42.500,
            812.244,1810.379,37.500,
            841.312,1818.709,26.250,
            870.381,1827.040,13.000,
            899.449,1835.370,2.250,
            928.517,1843.701,-2.750,
            957.586,1852.031,-2.250,
            986.654,1860.362,-1.500,
            1015.722,1868.692,-1.000,
            1044.791,1877.023,-1.000,
            1073.859,1885.353,-1.000,
            1102.927,1893.684,-1.000,
            1131.996,1902.014,-1.000,
            1161.064,1910.344,-0.500,
            1190.132,1918.675,0.000,
            1219.200,1927.005,0.000,
            1248.269,1935.336,0.000,
            1277.337,1943.666,0.000,
            1306.405,1951.997,0.000,
            1335.474,1960.327,0.000,
            1364.542,1968.658,0.000,
            1393.610,1976.988,0.000,
            1422.679,1985.319,0.000,
            1451.747,1993.649,0.000,
            -2609.321,798.912,55.000,
            -2580.253,807.242,51.750,
            -2551.185,815.572,46.000,
            -2522.117,823.902,42.000,
            -2493.048,832.232,40.750,
            -2463.980,840.562,40.500,
            -2434.912,848.892,39.500,
            -2405.844,857.222,37.500,
            -2376.776,865.552,36.000,
            -2347.707,873.882,35.500,
            -2318.639,882.212,34.250,
            -2289.571,890.542,32.500,
            -2260.503,898.872,33.250,
            -2231.435,907.202,36.000,
            -2202.366,915.532,38.000,
            -2173.298,923.862,39.500,
            -2144.230,932.192,41.250,
            -2115.162,940.522,43.250,
            -2086.094,948.852,45.250,
            -2057.025,957.182,48.000,
            -2027.957,965.512,51.750,
            -1998.889,973.842,56.750,
            -1969.821,982.172,62.500,
            -1940.752,990.502,67.000,
            -1911.684,998.832,69.500,
            -1882.616,1007.162,72.000,
            -1853.548,1015.492,75.500,
            -1824.480,1023.822,79.000,
            -1795.411,1032.152,82.500,
            -1766.343,1040.482,87.750,
            -1737.275,1048.812,93.750,
            -1708.207,1057.142,99.750,
            -1679.139,1065.472,107.000,
            -1650.070,1073.802,113.500,
            -1621.002,1082.132,117.500,
            -1591.934,1090.462,121.250,
            -1562.866,1098.792,126.500,
            -1533.797,1107.122,130.000,
            -1504.729,1115.453,130.500,
            -1475.661,1123.783,131.250,
            -1446.593,1132.113,135.500,
            -1417.524,1140.443,143.000,
            -1388.456,1148.773,152.250,
            -1359.388,1157.103,163.000,
            -1330.320,1165.433,172.000,
            -1301.252,1173.763,178.500,
            -1272.183,1182.093,184.750,
            -1243.115,1190.424,190.000,
            -1214.047,1198.754,193.000,
            -1184.979,1207.084,196.000,
            -1155.910,1215.414,202.000,
            -1126.842,1223.744,211.000,
            -1097.774,1232.074,219.250,
            -1068.706,1240.404,226.250,
            -1039.637,1248.734,233.250,
            -1010.569,1257.065,234.000,
            -981.501,1265.395,227.000,
            -952.433,1273.725,219.500,
            -923.364,1282.055,215.500,
            -894.296,1290.385,215.250,
            -865.228,1298.716,215.000,
            -836.160,1307.046,211.250,
            -807.091,1315.376,212.000,
            -778.023,1323.706,214.500,
            -748.955,1332.036,209.500,
            -719.887,1340.366,207.250,
            -690.818,1348.697,207.500,
            -661.750,1357.027,205.000,
            -632.682,1365.357,203.500,
            -603.614,1373.687,202.250,
            -574.545,1382.018,198.250,
            -545.477,1390.348,195.750,
            -516.409,1398.678,191.000,
            -487.341,1407.008,180.500,
            -458.272,1415.338,176.000,
            -429.204,1423.669,186.500,
            -400.136,1431.999,204.750,
            -371.068,1440.329,220.000,
            -341.999,1448.659,232.500,
            -312.931,1456.990,243.750,
            -283.863,1465.320,255.500,
            -254.794,1473.650,267.750,
            -225.726,1481.980,281.000,
            -196.658,1490.311,285.000,
            -167.590,1498.641,273.500,
            -138.521,1506.971,253.250,
            -109.453,1515.302,230.000,
            -80.385,1523.632,209.250,
            -51.317,1531.962,188.750,
            -22.248,1540.293,175.750,
            6.820,1548.623,168.500,
            35.888,1556.953,153.000,
            64.957,1565.283,133.500,
            94.025,1573.614,118.500,
            123.093,1581.944,107.000,
            152.161,1590.274,95.500,
            181.230,1598.605,86.500,
            210.298,1606.935,83.250,
            239.366,1615.265,82.750,
            268.434,1623.596,82.250,
            297.503,1631.926,80.500,
            326.571,1640.256,80.500,
            355.639,1648.587,82.500,
            384.708,1656.917,80.250,
            413.776,1665.248,74.750,
            442.844,1673.578,67.000,
            471.913,1681.908,56.250,
            500.981,1690.239,46.750,
            530.049,1698.569,43.000,
            559.117,1706.899,42.000,
            588.186,1715.230,41.500,
            617.254,1723.560,40.500,
            646.322,1731.891,38.750,
            675.391,1740.221,36.750,
            704.459,1748.551,35.250,
            733.527,1756.882,35.500,
            762.595,1765.212,35.250,
            791.664,1773.543,33.000,
            820.732,1781.873,27.750,
            849.800,1790.204,15.500,
            878.869,1798.534,4.750,
            907.937,1806.864,0.250,
            937.005,1815.195,-1.750,
            966.074,1823.525,-1.500,
            995.142,1831.856,-1.250,
            1024.210,1840.186,-1.000,
            1053.279,1848.517,-1.000,
            1082.347,1856.847,-1.000,
            1111.415,1865.178,-1.000,
            1140.483,1873.508,-0.750,
            1169.552,1881.839,-0.250,
            1198.620,1890.169,0.000,
            1227.688,1898.500,0.000,
            1256.757,1906.830,0.000,
            1285.825,1915.161,0.000,
            1314.893,1923.491,0.000,
            1343.962,1931.822,0.000,
            1373.030,1940.152,0.000,
            1402.098,1948.483,0.000,
            1431.167,1956.813,0.000,
            1460.235,1965.143,0.000,
            -2600.833,770.406,53.000,
            -2571.765,778.736,49.500,
            -2542.697,787.066,43.750,
            -2513.629,795.396,39.750,
            -2484.560,803.726,38.250,
            -2455.492,812.056,38.250,
            -2426.424,820.386,37.500,
            -2397.356,828.716,35.500,
            -2368.288,837.046,33.750,
            -2339.219,845.376,33.000,
            -2310.151,853.706,32.250,
            -2281.083,862.036,32.250,
            -2252.015,870.366,33.750,
            -2222.947,878.696,36.000,
            -2193.878,887.026,38.000,
            -2164.810,895.356,39.750,
            -2135.742,903.686,41.750,
            -2106.674,912.016,44.250,
            -2077.606,920.346,47.000,
            -2048.537,928.676,49.500,
            -2019.469,937.006,51.750,
            -1990.401,945.336,55.500,
            -1961.333,953.666,60.500,
            -1932.265,961.996,64.500,
            -1903.196,970.326,67.500,
            -1874.128,978.656,70.250,
            -1845.060,986.986,73.250,
            -1815.992,995.316,76.750,
            -1786.923,1003.646,81.250,
            -1757.855,1011.976,86.500,
            -1728.787,1020.306,91.250,
            -1699.719,1028.636,96.750,
            -1670.651,1036.966,103.000,
            -1641.582,1045.296,108.250,
            -1612.514,1053.626,111.250,
            -1583.446,1061.956,113.750,
            -1554.378,1070.286,118.000,
            -1525.309,1078.617,120.750,
            -1496.241,1086.947,121.750,
            -1467.173,1095.277,127.000,
            -1438.105,1103.607,136.000,
            -1409.037,1111.937,144.500,
            -1379.968,1120.267,152.500,
            -1350.900,1128.597,160.500,
            -1321.832,1136.927,167.250,
            -1292.764,1145.257,172.750,
            -1263.695,1153.587,178.250,
            -1234.627,1161.918,182.250,
            -1205.559,1170.248,185.500,
            -1176.491,1178.578,191.250,
            -1147.422,1186.908,200.750,
            -1118.354,1195.238,211.500,
            -1089.286,1203.568,219.500,
            -1060.218,1211.898,225.000,
            -1031.149,1220.229,230.000,
            -1002.081,1228.559,230.750,
            -973.013,1236.889,224.000,
            -943.945,1245.219,214.250,
            -914.876,1253.549,208.000,
            -885.808,1261.879,207.500,
            -856.740,1270.210,207.250,
            -827.672,1278.540,202.750,
            -798.603,1286.870,202.500,
            -769.535,1295.200,204.500,
            -740.467,1303.530,199.000,
            -711.399,1311.861,195.500,
            -682.330,1320.191,196.750,
            -653.262,1328.521,195.000,
            -624.194,1336.851,192.000,
            -595.126,1345.181,191.250,
            -566.057,1353.512,188.750,
            -536.989,1361.842,185.250,
            -507.921,1370.172,179.250,
            -478.853,1378.502,169.750,
            -449.784,1386.833,168.500,
            -420.716,1395.163,180.000,
            -391.648,1403.493,195.750,
            -362.580,1411.823,209.250,
            -333.511,1420.154,223.000,
            -304.443,1428.484,237.500,
            -275.375,1436.814,251.250,
            -246.307,1445.144,265.000,
            -217.238,1453.475,278.750,
            -188.170,1461.805,283.750,
            -159.102,1470.135,272.750,
            -130.033,1478.465,251.500,
            -100.965,1486.796,228.000,
            -71.897,1495.126,207.000,
            -42.829,1503.456,188.250,
            -13.760,1511.787,175.500,
            15.308,1520.117,168.750,
            44.376,1528.447,156.500,
            73.444,1536.778,141.500,
            102.513,1545.108,130.750,
            131.581,1553.438,118.000,
            160.649,1561.769,102.250,
            189.718,1570.099,87.000,
            218.786,1578.429,74.750,
            247.854,1586.760,68.500,
            276.922,1595.090,67.750,
            305.991,1603.420,68.500,
            335.059,1611.751,70.500,
            364.127,1620.081,72.500,
            393.196,1628.411,70.500,
            422.264,1636.742,66.000,
            451.332,1645.072,60.000,
            480.400,1653.402,51.750,
            509.469,1661.733,44.000,
            538.537,1670.063,39.500,
            567.605,1678.394,37.000,
            596.674,1686.724,35.000,
            625.742,1695.054,32.500,
            654.810,1703.385,30.250,
            683.879,1711.715,28.250,
            712.947,1720.046,26.250,
            742.015,1728.376,25.500,
            771.083,1736.706,25.000,
            800.152,1745.037,22.250,
            829.220,1753.367,15.500,
            858.288,1761.698,6.750,
            887.357,1770.028,1.500,
            916.425,1778.359,0.000,
            945.493,1786.689,-0.750,
            974.562,1795.019,-1.000,
            1003.630,1803.350,-1.000,
            1032.698,1811.680,-1.000,
            1061.766,1820.011,-1.000,
            1090.835,1828.341,-1.000,
            1119.903,1836.672,-1.000,
            1148.971,1845.002,-0.500,
            1178.040,1853.333,0.000,
            1207.108,1861.663,0.000,
            1236.176,1869.994,0.000,
            1265.245,1878.324,0.000,
            1294.313,1886.655,0.000,
            1323.381,1894.985,0.000,
            1352.450,1903.316,0.000,
            1381.518,1911.646,0.000,
            1410.586,1919.977,0.000,
            1439.655,1928.307,0.000,
            1468.723,1936.637,0.000,
            -2592.345,741.900,51.000,
            -2563.277,750.230,47.750,
            -2534.209,758.560,41.750,
            -2505.141,766.890,37.500,
            -2476.073,775.220,35.750,
            -2447.004,783.550,35.500,
            -2417.936,791.880,35.000,
            -2388.868,800.210,33.500,
            -2359.800,808.540,32.000,
            -2330.732,816.870,31.250,
            -2301.663,825.200,31.500,
            -2272.595,833.530,32.500,
            -2243.527,841.860,34.000,
            -2214.459,850.190,36.000,
            -2185.391,858.520,38.000,
            -2156.322,866.850,40.000,
            -2127.254,875.180,42.250,
            -2098.186,883.510,44.750,
            -2069.118,891.840,47.500,
            -2040.050,900.170,50.250,
            -2010.981,908.500,52.500,
            -1981.913,916.830,55.500,
            -1952.845,925.160,59.500,
            -1923.777,933.490,63.000,
            -1894.708,941.820,66.500,
            -1865.640,950.150,70.000,
            -1836.572,958.480,73.000,
            -1807.504,966.810,76.750,
            -1778.436,975.140,81.250,
            -1749.367,983.470,85.250,
            -1720.299,991.800,89.000,
            -1691.231,1000.130,93.750,
            -1662.163,1008.460,98.750,
            -1633.094,1016.790,102.750,
            -1604.026,1025.120,105.000,
            -1574.958,1033.450,107.000,
            -1545.890,1041.781,110.250,
            -1516.822,1050.111,113.750,
            -1487.753,1058.441,120.500,
            -1458.685,1066.771,132.500,
            -1429.617,1075.101,143.000,
            -1400.549,1083.431,149.500,
            -1371.480,1091.761,154.500,
            -1342.412,1100.091,160.250,
            -1313.344,1108.421,166.250,
            -1284.276,1116.751,170.500,
            -1255.207,1125.082,174.500,
            -1226.139,1133.412,176.250,
            -1197.071,1141.742,179.500,
            -1168.003,1150.072,188.250,
            -1138.935,1158.402,198.750,
            -1109.866,1166.732,208.250,
            -1080.798,1175.062,215.750,
            -1051.730,1183.392,220.750,
            -1022.662,1191.723,224.250,
            -993.593,1200.053,224.500,
            -964.525,1208.383,218.250,
            -935.457,1216.713,208.750,
            -906.389,1225.043,201.750,
            -877.320,1233.373,201.000,
            -848.252,1241.704,201.750,
            -819.184,1250.034,196.750,
            -790.116,1258.364,193.000,
            -761.047,1266.694,193.750,
            -731.979,1275.024,188.500,
            -702.911,1283.355,184.000,
            -673.843,1291.685,187.500,
            -644.774,1300.015,187.000,
            -615.706,1308.345,181.500,
            -586.638,1316.675,179.250,
            -557.570,1325.006,177.500,
            -528.501,1333.336,173.000,
            -499.433,1341.666,167.000,
            -470.365,1349.996,161.250,
            -441.296,1358.327,163.000,
            -412.228,1366.657,174.500,
            -383.160,1374.987,190.750,
            -354.092,1383.317,206.500,
            -325.023,1391.648,221.750,
            -295.955,1399.978,236.750,
            -266.887,1408.308,250.000,
            -237.819,1416.638,263.250,