! Generated by QGIS2FDS plugin on QGIS <3.12.2-București>
! QGIS file: <...retools/qgis2fds/verification/golden_gate/golden_gate.qgs>
! Selected UTM CRS: <WGS 84 / UTM zone 10N>
! Terrain extent: <543054.6,4185866.9 : 546653.2,4188750.1>
! DEM layer: <US_DEM2016>
! Landuse layer: <US_200FBFM13>
! Landuse type: <Landfire FBFM13>
! Domain Origin: <544903.9, 4187651.3>
! Domain Origin Link: <http://www.openstreetmap.org/?mlat=37.835184&mlon=-122.489692&zoom=12>
! Fire Origin: <544523.3, 4187478.5>
! Fire Origin Link: <http://www.openstreetmap.org/?mlat=37.833646&mlon=-122.494028&zoom=12>
! Date: <mer, 13 mag 2020, 17:34:41>
 
&HEAD CHID='golden_gate' TITLE='Description of golden_gate' /
&TIME T_END=0. /
&RADI RADIATION=F /
 
 MISC ORIGIN_LAT=37.8351840 ORIGIN_LON=-122.4896920 NORTH_BEARING=0. / ! New
&MISC TERRAIN_CASE=T SIMULATION_MODE='SVLES' TERRAIN_IMAGE='golden_gate_texture.png' /
 
! Reaction
! from Karlsson, Quintiere 'Enclosure Fire Dyn', CRC Press, 2000
&REAC ID='Wood' FUEL='PROPANE', SOOT_YIELD=0.015 /
 
! Domain and its boundary conditions
&MESH IJK=50,50,50 XB=-500.000,500.000,-500.000,500.000,-10.000,1000.000 /
&TRNZ MESH_NUMBER=0 IDERIV=1 CC=0 PC=0.5 /
&VENT MB='XMIN' SURF_ID='OPEN' /
&VENT MB='XMAX' SURF_ID='OPEN' /
&VENT MB='YMIN' SURF_ID='OPEN' /
&VENT MB='YMAX' SURF_ID='OPEN' /
&VENT MB='ZMAX' SURF_ID='OPEN' /
 
! Fire origin
&SURF ID='Ignition' VEG_LSET_IGNITE_TIME=1800. COLOR='RED' /
&VENT XB=-385.619,-375.619,-177.717,-167.717,-10.000,-10.000 SURF_ID='Ignition' GEOM=T /
 
! Output quantities
&BNDF QUANTITY='BURNING RATE' /
&SLCF DB='ZMID', QUANTITY='VELOCITY', VECTOR=T /
&SLCF AGL_SLICE=25., QUANTITY='VELOCITY', VECTOR=T /
&SLCF AGL_SLICE=1., QUANTITY='LEVEL SET VALUE' /
 
! Wind
&WIND SPEED=1., RAMP_SPEED='ws', RAMP_DIRECTION='wd', LATITUDE=37.8351840, DT_MEAN_FORCING=20. /
&RAMP ID='ws', T=0, F=0. /
&RAMP ID='ws', T=600, F=10. /
&RAMP ID='ws', T=1200, F=20. /
&RAMP ID='wd', T=0, F=330. /
&RAMP ID='wd', T=600, F=300. /
&RAMP ID='wd', T=1200, F=270. /
 
! Boundary conditions
! 13 Anderson Fire Behavior Fuel Models
&SURF ID='A01' RGB=255,254,212 VEG_LSET_FUEL_INDEX= 1 HRRPUA=100. RAMP_Q='f01' /
&SURF ID='A02' RGB=255,253,102 VEG_LSET_FUEL_INDEX= 2 HRRPUA=500. RAMP_Q='f02' /
&SURF ID='A03' RGB=236,212, 99 VEG_LSET_FUEL_INDEX= 3 HRRPUA=500. RAMP_Q='f03' /
&SURF ID='A04' RGB=254,193,119 VEG_LSET_FUEL_INDEX= 4 HRRPUA=500. RAMP_Q='f04' /
&SURF ID='A05' RGB=249,197, 92 VEG_LSET_FUEL_INDEX= 5 HRRPUA=500. RAMP_Q='f05' /
&SURF ID='A06' RGB=217,196,152 VEG_LSET_FUEL_INDEX= 6 HRRPUA=500. RAMP_Q='f06' /
&SURF ID='A07' RGB=170,155,127 VEG_LSET_FUEL_INDEX= 7 HRRPUA=500. RAMP_Q='f07' /
&SURF ID='A08' RGB=229,253,214 VEG_LSET_FUEL_INDEX= 8 HRRPUA=500. RAMP_Q='f08' /
&SURF ID='A09' RGB=162,191, 90 VEG_LSET_FUEL_INDEX= 9 HRRPUA=500. RAMP_Q='f09' /
&SURF ID='A10' RGB=114,154, 85 VEG_LSET_FUEL_INDEX=10 HRRPUA=500. RAMP_Q='f10' /
&SURF ID='A11' RGB=235,212,253 VEG_LSET_FUEL_INDEX=11 HRRPUA=500. RAMP_Q='f11' /
&SURF ID='A12' RGB=163,177,243 VEG_LSET_FUEL_INDEX=12 HRRPUA=500. RAMP_Q='f12' /
&SURF ID='A13' RGB=  0,  0,  0 VEG_LSET_FUEL_INDEX=13 HRRPUA=500. RAMP_Q='f13' /
&SURF ID='Urban' RGB=186,119, 80 /
&SURF ID='Snow-Ice' RGB=234,234,234 /
&SURF ID='Agricolture' RGB=253,242,242 /
&SURF ID='Water' RGB=137,183,221 /
&SURF ID='Barren' RGB=133,153,156 /
&SURF ID='NA' RGB=255,255,255 /
 
&RAMP ID='f01', T= 0., F=0. /
&RAMP ID='f01', T= 5., F=1. /
&RAMP ID='f01', T=25., F=1. /
&RAMP ID='f01', T=30., F=0. /
 
&RAMP ID='f02', T=  0., F=0. /
&RAMP ID='f02', T=  5., F=1. /
&RAMP ID='f02', T=115., F=1. /
&RAMP ID='f02', T=120., F=0. /
 
&RAMP ID='f03', T=  0., F=0. /
&RAMP ID='f03', T=  5., F=1. /
&RAMP ID='f03', T=115., F=1. /
&RAMP ID='f03', T=120., F=0. /
 
&RAMP ID='f04', T=  0., F=0. /
&RAMP ID='f04', T=  5., F=1. /
&RAMP ID='f04', T=115., F=1. /
&RAMP ID='f04', T=120., F=0. /
 
&RAMP ID='f05', T= 0., F=0. /
&RAMP ID='f05', T= 5., F=1. /
&RAMP ID='f05', T=35., F=1. /
&RAMP ID='f05', T=40., F=0. /
 
&RAMP ID='f06', T=  0., F=0. /
&RAMP ID='f06', T=  5., F=1. /
&RAMP ID='f06', T=115., F=1. /
&RAMP ID='f06', T=120., F=0. /
 
&RAMP ID='f07', T=  0., F=0. /
&RAMP ID='f07', T=  5., F=1. /
&RAMP ID='f07', T=115., F=1. /
&RAMP ID='f07', T=120., F=0. /
 
&RAMP ID='f08', T=  0., F=0. /
&RAMP ID='f08', T=  5., F=1. /
&RAMP ID='f08', T=115., F=1. /
&RAMP ID='f08', T=120., F=0. /
 
&RAMP ID='f09', T=  0., F=0. /
&RAMP ID='f09', T=  5., F=1. /
&RAMP ID='f09', T=115., F=1. /
&RAMP ID='f09', T=120., F=0. /
 
&RAMP ID='f10', T= 0., F=0. /
&RAMP ID='f10', T= 5., F=1. /
&RAMP ID='f10', T=85., F=1. /
&RAMP ID='f10', T=90., F=0. /
 
&RAMP ID='f11', T= 0., F=0. /
&RAMP ID='f11', T= 5., F=1. /
&RAMP ID='f11', T=85., F=1. /
&RAMP ID='f11', T=90., F=0. /
 
&RAMP ID='f12', T= 0., F=0. /
&RAMP ID='f12', T= 5., F=1. /
&RAMP ID='f12', T=85., F=1. /
&RAMP ID='f12', T=90., F=0. /
 
&RAMP ID='f13', T= 0., F=0. /
&RAMP ID='f13', T= 5., F=1. /
&RAMP ID='f13', T=85., F=1. /
&RAMP ID='f13', T=90., F=0. /
 
! Terrain
&GEOM ID='Terrain' IS_TERRAIN=T EXTEND_TERRAIN=F
      SURF_ID='A01','A02','A03','A04','A05','A06','A07','A08','A09','A10','A11','A12','A13',
            'Urban','Snow-Ice','Agricolture','Water','Barren','NA'
      VERTS=-2626.378,854.703,57.000,
            -2617.890,826.197,56.500,
            -2609.402,797.691,55.000,
            -2600.915,769.185,53.000,
            -2592.427,740.680,51.000,
            -2583.939,712.174,49.500,
            -2575.451,683.668,48.500,
            -2566.963,655.162,47.500,
            -2558.475,626.656,47.500,
            -2549.987,598.150,48.500,
            -2541.499,569.644,47.000,
            -2533.011,541.138,43.500,
            -2524.524,512.632,41.000,
            -2516.036,484.126,38.500,
            -2507.548,455.620,34.500,
            -2499.060,427.114,29.000,
            -2490.572,398.608,24.000,
            -2482.084,370.102,21.000,
            -2473.596,341.596,19.500,
            -2465.108,313.090,18.000,
            -2456.620,284.584,18.000,
            -2448.133,256.078,19.000,
            -2439.645,227.573,19.500,
            -2431.157,199.067,20.500,
            -2422.669,170.561,21.500,
            -2414.181,142.055,25.000,
            -2405.693,113.549,33.000,
            -2397.205,85.043,45.000,
            -2388.717,56.537,57.500,
            -2380.230,28.031,63.000,
            -2371.742,-0.475,59.000,
            -2363.254,-28.981,50.000,
            -2354.766,-57.487,41.500,
            -2346.278,-85.993,34.000,
            -2337.790,-114.499,27.000,
            -2329.302,-143.005,22.500,
            -2320.814,-171.511,20.500,
            -2312.327,-200.017,20.000,
            -2303.839,-228.523,19.000,
            -2295.351,-257.029,17.500,
            -2286.863,-285.535,17.000,
            -2278.375,-314.041,18.500,
            -2269.887,-342.547,21.000,
            -2261.399,-371.053,22.500,
            -2252.911,-399.558,23.500,
            -2244.424,-428.064,26.000,
            -2235.936,-456.570,33.500,
            -2227.448,-485.076,42.500,
            -2218.960,-513.582,48.000,
            -2210.472,-542.088,53.000,
            -2201.984,-570.594,57.500,
            -2193.496,-599.100,59.500,
            -2185.009,-627.606,61.500,
            -2176.521,-656.112,64.500,
            -2168.033,-684.618,67.500,
            -2159.545,-713.124,72.000,
            -2151.057,-741.630,79.000,
            -2142.569,-770.136,87.000,
            -2134.081,-798.642,94.000,
            -2125.594,-827.148,99.500,
            -2117.106,-855.654,100.500,
            -2108.618,-884.160,96.000,
            -2100.130,-912.666,92.000,
            -2091.642,-941.172,89.000,
            -2083.154,-969.678,84.000,
            -2074.667,-998.184,75.500,
            -2066.179,-1026.690,65.500,
            -2057.691,-1055.196,57.500,
            -2049.203,-1083.702,47.500,
            -2040.715,-1112.208,35.000,
            -2032.227,-1140.714,24.000,
            -2023.740,-1169.220,14.500,
            -2015.252,-1197.725,7.500,
            -2006.764,-1226.231,3.500,
            -1998.276,-1254.737,0.500,
            -1989.788,-1283.243,-2.000,
            -1981.300,-1311.749,-3.000,
            -1972.813,-1340.255,-3.500,
            -1964.325,-1368.761,-3.500,
            -1955.837,-1397.267,-3.000,
            -1947.349,-1425.773,-3.000,
            -1938.861,-1454.279,-2.500,
            -1930.373,-1482.785,-2.000,
            -1921.886,-1511.291,-1.500,
            -1913.398,-1539.797,-1.000,
            -1904.910,-1568.303,-1.000,
            -1896.422,-1596.809,-1.000,
            -1887.934,-1625.315,-0.500,
            -1879.446,-1653.821,0.000,
            -1870.959,-1682.327,0.000,
            -1862.471,-1710.833,0.000,
            -1853.983,-1739.339,0.000,
            -1845.495,-1767.845,0.000,
            -1837.007,-1796.351,0.000,
            -1828.519,-1824.857,0.000,
            -1820.032,-1853.363,0.000,
            -1811.544,-1881.869,0.000,
            -1803.056,-1910.375,0.000,
            -1794.568,-1938.881,0.000,
            -1786.080,-1967.387,0.000,
            -1777.593,-1995.893,0.000,
            -1769.105,-2024.399,0.000,
            -1760.617,-2052.905,0.000,
            -1752.129,-2081.411,0.000,
            -1743.641,-2109.917,0.000,
            -1735.154,-2138.423,0.000,
            -1726.666,-2166.929,0.000,
            -1718.178,-2195.435,0.000,
            -1709.690,-2223.941,0.000,
            -1701.202,-2252.447,0.000,
            -1692.715,-2280.953,0.000,
            -1684.227,-2309.459,0.000,
            -1675.739,-2337.965,0.000,
            -1667.251,-2366.471,0.000,
            -1658.763,-2394.977,0.000,
            -1650.276,-2423.483,0.000,
            -1641.788,-2451.989,0.000,
            -1633.300,-2480.495,0.000,
            -1624.812,-2509.001,0.000,
            -1616.324,-2537.507,0.000,
            -1607.837,-2566.013,0.000,
            -1599.349,-2594.519,0.000,
            -1590.861,-2623.025,0.000,
            -1582.373,-2651.531,0.000,
            -1573.885,-2680.037,0.000,
            -1565.398,-2708.543,0.000,
            -2597.310,863.033,52.500,
            -2588.822,834.527,52.750,
            -2580.334,806.021,51.750,
            -2571.846,777.515,49.500,
            -2563.358,749.009,47.750,
            -2554.871,720.504,46.500,
            -2546.383,691.998,45.500,
            -2537.895,663.492,44.500,
            -2529.407,634.986,44.000,
            -2520.919,606.480,43.750,
            -2512.431,577.974,41.500,
            -2503.943,549.468,37.750,
            -2495.455,520.962,34.500,
            -2486.967,492.456,31.500,
            -2478.480,463.950,28.500,
            -2469.992,435.444,25.500,
            -2461.504,406.938,22.750,
            -2453.016,378.432,20.750,
            -2444.528,349.926,19.750,
            -2436.040,321.420,19.000,
            -2427.552,292.914,19.500,
            -2419.064,264.408,20.750,
            -2410.576,235.902,21.500,
            -2402.089,207.396,22.250,
            -2393.601,178.891,23.500,
            -2385.113,150.385,27.500,
            -2376.625,121.879,35.250,
            -2368.137,93.373,46.250,
            -2359.649,64.867,57.750,
            -2351.161,36.361,63.500,
            -2342.673,7.855,61.000,
            -2334.186,-20.651,54.000,
            -2325.698,-49.157,45.750,
            -2317.210,-77.663,36.750,
            -2308.722,-106.169,28.750,
            -2300.234,-134.675,23.750,
            -2291.746,-163.181,21.250,
            -2283.258,-191.687,20.500,
            -2274.770,-220.193,19.750,
            -2266.283,-248.699,18.500,
            -2257.795,-277.205,18.000,
            -2249.307,-305.711,18.750,
            -2240.819,-334.217,20.250,
            -2232.331,-362.723,21.750,
            -2223.843,-391.229,23.500,
            -2215.355,-419.735,28.000,
            -2206.868,-448.240,37.250,
            -2198.380,-476.746,47.000,
            -2189.892,-505.252,52.500,
            -2181.404,-533.758,56.750,
            -2172.916,-562.264,60.750,
            -2164.428,-590.770,63.250,
            -2155.940,-619.276,66.250,
            -2147.453,-647.782,69.500,
            -2138.965,-676.288,72.250,
            -2130.477,-704.794,76.000,
            -2121.989,-733.300,81.750,
            -2113.501,-761.806,88.750,
            -2105.013,-790.312,95.500,
            -2096.525,-818.818,100.500,
            -2088.038,-847.324,100.250,
            -2079.550,-875.830,94.000,
            -2071.062,-904.336,88.500,
            -2062.574,-932.842,85.500,
            -2054.086,-961.348,81.000,
            -2045.598,-989.854,73.500,
            -2037.111,-1018.360,65.500,
            -2028.623,-1046.866,58.750,
            -2020.135,-1075.372,50.500,
            -2011.647,-1103.878,40.000,
            -2003.159,-1132.384,27.500,
            -1994.671,-1160.890,15.250,
            -1986.183,-1189.396,7.750,
            -1977.696,-1217.902,3.750,
            -1969.208,-1246.407,0.750,
            -1960.720,-1274.913,-1.500,
            -1952.232,-1303.419,-2.750,
            -1943.744,-1331.925,-3.250,
            -1935.256,-1360.431,-3.250,
            -1926.769,-1388.937,-3.000,
            -1918.281,-1417.443,-3.000,
            -1909.793,-1445.949,-2.750,
            -1901.305,-1474.455,-2.250,
            -1892.817,-1502.961,-1.750,
            -1884.329,-1531.467,-1.250,
            -1875.842,-1559.973,-1.000,
            -1867.354,-1588.479,-1.000,
            -1858.866,-1616.985,-0.750,
            -1850.378,-1645.491,-0.250,
            -1841.890,-1673.997,0.000,
            -1833.403,-1702.503,0.000,
            -1824.915,-1731.009,0.000,
            -1816.427,-1759.515,0.000,
            -1807.939,-1788.021,0.000,
            -1799.451,-1816.527,0.000,
            -1790.963,-1845.033,0.000,
            -1782.476,-1873.539,0.000,
            -1773.988,-1902.045,0.000,
            -1765.500,-1930.551,0.000,
            -1757.012,-1959.057,0.000,
            -1748.524,-1987.563,0.000,
            -1740.037,-2016.069,0.000,
            -1731.549,-2044.575,0.000,
            -1723.061,-2073.081,0.000,
            -1714.573,-2101.587,0.000,
            -1706.085,-2130.093,0.000,
            -1697.598,-2158.599,0.000,
            -1689.110,-2187.105,0.000,
            -1680.622,-2215.611,0.000,
            -1672.134,-2244.117,0.000,
            -1663.646,-2272.623,0.000,
            -1655.159,-2301.129,0.000,
            -1646.671,-2329.635,0.000,
            -1638.183,-2358.141,0.000,
            -1629.695,-2386.647,0.000,
            -1621.207,-2415.153,0.000,
            -1612.720,-2443.659,0.000,
            -1604.232,-2472.165,0.000,
            -1595.744,-2500.671,0.000,
            -1587.256,-2529.177,0.000,
            -1578.768,-2557.683,0.000,
            -1570.281,-2586.189,0.000,
            -1561.793,-2614.695,0.000,
            -1553.305,-2643.201,0.000,
            -1544.817,-2671.707,0.000,
            -1536.329,-2700.213,0.000,
            -2568.242,871.363,48.000,
            -2559.754,842.857,47.500,
            -2551.266,814.351,46.000,
            -2542.778,785.845,43.750,
            -2534.290,757.339,41.750,
            -2525.802,728.833,40.500,
            -2517.315,700.328,39.750,
            -2508.827,671.822,38.750,
            -2500.339,643.316,37.250,
            -2491.851,614.810,35.000,
            -2483.363,586.304,31.750,
            -2474.875,557.798,28.250,
            -2466.387,529.292,25.000,
            -2457.899,500.786,22.500,
            -2449.411,472.280,21.250,
            -2440.923,443.774,21.000,
            -2432.436,415.268,20.750,
            -2423.948,386.762,19.750,
            -2415.460,358.256,19.000,
            -2406.972,329.750,20.000,
            -2398.484,301.244,22.000,
            -2389.996,272.738,24.000,
            -2381.508,244.232,25.500,
            -2373.020,215.726,26.250,
            -2364.532,187.220,28.000,
            -2356.045,158.715,32.250,
            -2347.557,130.209,38.750,
            -2339.069,101.703,47.750,
            -2330.581,73.197,58.500,
            -2322.093,44.691,65.250,
            -2313.605,16.185,64.750,
            -2305.117,-12.321,59.500,
            -2296.629,-40.827,50.500,
            -2288.142,-69.333,40.000,
            -2279.654,-97.839,31.500,
            -2271.166,-126.345,26.000,
            -2262.678,-154.851,23.000,
            -2254.190,-183.357,21.750,
            -2245.702,-211.863,21.000,
            -2237.214,-240.369,20.000,
            -2228.727,-268.875,19.500,
            -2220.239,-297.381,19.500,
            -2211.751,-325.887,19.500,
            -2203.263,-354.393,20.750,
            -2194.775,-382.899,24.250,
            -2186.287,-411.405,31.000,
            -2177.799,-439.911,41.500,
            -2169.311,-468.416,52.000,
            -2160.824,-496.922,58.500,
            -2152.336,-525.428,63.000,
            -2143.848,-553.934,67.000,
            -2135.360,-582.440,71.000,
            -2126.872,-610.946,75.750,
            -2118.384,-639.452,78.750,
            -2109.896,-667.958,80.500,
            -2101.409,-696.464,83.250,
            -2092.921,-724.970,87.250,
            -2084.433,-753.476,92.750,
            -2075.945,-781.982,98.750,
            -2067.457,-810.488,102.750,
            -2058.969,-838.994,100.750,
            -2050.482,-867.500,92.250,
            -2041.994,-896.006,84.250,
            -2033.506,-924.512,79.500,
            -2025.018,-953.018,73.750,
            -2016.530,-981.524,66.500,
            -2008.042,-1010.030,60.500,
            -1999.554,-1038.536,55.750,
            -1991.067,-1067.042,51.000,
            -1982.579,-1095.548,45.250,
            -1974.091,-1124.054,33.000,
            -1965.603,-1152.560,17.750,
            -1957.115,-1181.066,9.250,
            -1948.627,-1209.572,5.250,
            -1940.140,-1238.078,2.250,
            -1931.652,-1266.584,0.000,
            -1923.164,-1295.089,-1.750,
            -1914.676,-1323.595,-2.750,
            -1906.188,-1352.101,-3.000,
            -1897.700,-1380.607,-3.000,
            -1889.213,-1409.113,-3.000,
            -1880.725,-1437.619,-3.000,
            -1872.237,-1466.125,-2.500,
            -1863.749,-1494.631,-2.000,
            -1855.261,-1523.137,-1.500,
            -1846.773,-1551.643,-1.000,
            -1838.286,-1580.149,-1.000,
            -1829.798,-1608.655,-1.000,
            -1821.310,-1637.161,-0.500,
            -1812.822,-1665.667,0.000,
            -1804.334,-1694.173,0.000,
            -1795.847,-1722.679,0.000,
            -1787.359,-1751.185,0.000,
            -1778.871,-1779.691,0.000,
            -1770.383,-1808.197,0.000,
            -1761.895,-1836.703,0.000,
            -1753.407,-1865.209,0.000,
            -1744.920,-1893.715,0.000,
            -1736.432,-1922.221,0.000,
            -1727.944,-1950.727,0.000,
            -1719.456,-1979.233,0.000,
            -1710.968,-2007.739,0.000,
            -1702.481,-2036.245,0.000,
            -1693.993,-2064.751,0.000,
            -1685.505,-2093.257,0.000,
            -1677.017,-2121.763,0.000,
            -1668.529,-2150.269,0.000,
            -1660.042,-2178.775,0.000,
            -1651.554,-2207.281,0.000,
            -1643.066,-2235.787,0.000,
            -1634.578,-2264.293,0.000,
            -1626.090,-2292.799,0.000,
            -1617.603,-2321.305,0.000,
            -1609.115,-2349.811,0.000,
            -1600.627,-2378.317,0.000,
            -1592.139,-2406.823,0.000,
            -1583.651,-2435.329,0.000,
            -1575.164,-2463.835,0.000,
            -1566.676,-2492.341,0.000,
            -1558.188,-2520.847,0.000,
            -1549.700,-2549.353,0.000,
            -1541.212,-2577.859,0.000,
            -1532.725,-2606.365,0.000,
            -1524.237,-2634.871,0.000,
            -1515.749,-2663.377,0.000,
            -1507.261,-2691.883,0.000,
            -2539.174,879.693,47.000,
            -2530.686,851.187,45.000,
            -2522.198,822.681,42.000,
            -2513.710,794.175,39.750,
            -2505.222,765.669,37.500,
            -2496.734,737.163,35.750,
            -2488.246,708.657,34.750,
            -2479.758,680.152,34.000,
            -2471.271,651.646,32.500,
            -2462.783,623.140,30.000,
            -2454.295,594.634,27.000,
            -2445.807,566.128,24.250,
            -2437.319,537.622,22.000,
            -2428.831,509.116,20.750,
            -2420.343,480.610,20.500,
            -2411.855,452.104,20.500,
            -2403.367,423.598,20.500,
            -2394.879,395.092,19.750,
            -2386.392,366.586,19.750,
            -2377.904,338.080,22.250,
            -2369.416,309.574,25.500,
            -2360.928,281.068,28.750,
            -2352.440,252.562,31.250,
            -2343.952,224.056,32.000,
            -2335.464,195.550,33.750,
            -2326.976,167.044,38.000,
            -2318.489,138.539,43.000,
            -2310.001,110.033,50.750,
            -2301.513,81.527,60.750,
            -2293.025,53.021,66.250,
            -2284.537,24.515,65.000,
            -2276.049,-3.991,58.500,
            -2267.561,-32.497,49.250,
            -2259.073,-61.003,40.500,
            -2250.586,-89.509,33.500,
            -2242.098,-118.015,28.750,
            -2233.610,-146.521,25.500,
            -2225.122,-175.027,23.000,
            -2216.634,-203.533,21.750,
            -2208.146,-232.039,21.000,
            -2199.658,-260.545,20.750,
            -2191.170,-289.051,20.750,
            -2182.683,-317.557,20.250,
            -2174.195,-346.063,21.000,
            -2165.707,-374.569,24.500,
            -2157.219,-403.075,31.250,
            -2148.731,-431.581,41.250,
            -2140.243,-460.087,51.500,
            -2131.755,-488.592,60.000,
            -2123.268,-517.098,67.750,
            -2114.780,-545.604,74.750,
            -2106.292,-574.110,81.500,
            -2097.804,-602.616,86.750,
            -2089.316,-631.122,88.250,
            -2080.828,-659.628,88.500,
            -2072.340,-688.134,90.750,
            -2063.853,-716.640,94.250,
            -2055.365,-745.146,98.250,
            -2046.877,-773.652,102.500,
            -2038.389,-802.158,105.000,
            -2029.901,-830.664,102.250,
            -2021.413,-859.170,93.750,
            -2012.925,-887.676,85.000,
            -2004.438,-916.182,78.000,
            -1995.950,-944.688,70.250,
            -1987.462,-973.194,63.000,
            -1978.974,-1001.700,57.750,
            -1970.486,-1030.206,54.500,
            -1961.998,-1058.712,51.500,
            -1953.511,-1087.218,47.000,
            -1945.023,-1115.724,36.500,
            -1936.535,-1144.230,21.500,
            -1928.047,-1172.736,12.000,
            -1919.559,-1201.242,8.000,
            -1911.071,-1229.748,4.750,
            -1902.584,-1258.254,1.750,
            -1894.096,-1286.760,-0.500,
            -1885.608,-1315.265,-2.000,
            -1877.120,-1343.771,-2.750,
            -1868.632,-1372.277,-3.000,
            -1860.144,-1400.783,-3.250,
            -1851.657,-1429.289,-3.250,
            -1843.169,-1457.795,-2.500,
            -1834.681,-1486.301,-2.000,
            -1826.193,-1514.807,-1.750,
            -1817.705,-1543.313,-1.250,
            -1809.217,-1571.819,-1.000,
            -1800.730,-1600.325,-0.750,
            -1792.242,-1628.831,-0.250,
            -1783.754,-1657.337,0.000,
            -1775.266,-1685.843,0.000,
            -1766.778,-1714.349,0.000,
            -1758.290,-1742.855,0.000,
            -1749.803,-1771.361,0.000,
            -1741.315,-1799.867,0.000,
            -1732.827,-1828.373,0.000,
            -1724.339,-1856.879,0.000,
            -1715.851,-1885.385,0.000,
            -1707.364,-1913.891,0.000,
            -1698.876,-1942.397,0.000,
            -1690.388,-1970.903,0.000,
            -1681.900,-1999.409,0.000,
            -1673.412,-2027.915,0.000,
            -1664.925,-2056.421,0.000,
            -1656.437,-2084.927,0.000,
            -1647.949,-2113.433,0.000,
            -1639.461,-2141.939,0.000,
            -1630.973,-2170.445,0.000,
            -1622.485,-2198.951,0.000,
            -1613.998,-2227.457,0.000,
            -1605.510,-2255.963,0.000,
            -1597.022,-2284.469,0.000,
            -1588.534,-2312.975,0.000,
            -1580.046,-2341.481,0.000,
            -1571.559,-2369.987,0.000,
            -1563.071,-2398.493,0.000,
            -1554.583,-2426.999,0.000,
            -1546.095,-2455.505,0.000,
            -1537.608,-2484.011,0.000,
            -1529.120,-2512.517,0.000,
            -1520.632,-2541.023,0.000,
            -1512.144,-2569.529,0.000,
            -1503.656,-2598.035,0.000,
            -1495.169,-2626.541,0.000,
            -1486.681,-2655.047,0.000,
            -1478.193,-2683.553,0.000,
            -2510.106,888.023,44.500,
            -2501.618,859.517,43.250,
            -2493.130,831.011,40.750,
            -2484.642,802.505,38.250,
            -2476.154,773.999,35.750,
            -2467.666,745.493,33.750,
            -2459.178,716.987,32.250,
            -2450.690,688.481,31.250,
            -2442.202,659.976,30.500,
            -2433.714,631.470,29.000,
            -2425.227,602.964,26.500,
            -2416.739,574.458,24.250,
            -2408.251,545.952,22.500,
            -2399.763,517.446,22.000,
            -2391.275,488.940,22.750,
            -2382.787,460.434,23.250,
            -2374.299,431.928,23.500,
            -2365.811,403.422,23.250,
            -2357.323,374.916,24.500,
            -2348.836,346.410,28.500,
            -2340.348,317.904,33.500,
            -2331.860,289.398,38.000,
            -2323.372,260.892,40.250,
            -2314.884,232.386,39.750,
            -2306.396,203.880,41.500,
            -2297.908,175.374,46.500,
            -2289.420,146.868,50.750,
            -2280.932,118.363,57.250,
            -2272.445,89.857,64.750,
            -2263.957,61.351,66.500,
            -2255.469,32.845,62.250,
            -2246.981,4.339,55.000,
            -2238.493,-24.167,48.000,
            -2230.005,-52.673,41.500,
            -2221.517,-81.179,36.000,
            -2213.029,-109.685,32.250,
            -2204.542,-138.191,28.250,
            -2196.054,-166.697,24.500,
            -2187.566,-195.203,22.750,
            -2179.078,-223.709,22.000,
            -2170.590,-252.215,21.750,
            -2162.102,-280.721,21.750,
            -2153.614,-309.227,21.500,
            -2145.127,-337.733,21.750,
            -2136.639,-366.239,24.250,
            -2128.151,-394.745,30.500,
            -2119.663,-423.251,40.000,
            -2111.175,-451.757,51.000,
            -2102.687,-480.263,61.750,
            -2094.199,-508.768,73.000,
            -2085.711,-537.274,84.250,
            -2077.224,-565.780,93.750,
            -2068.736,-594.286,99.000,
            -2060.248,-622.792,99.250,
            -2051.760,-651.298,98.250,
            -2043.272,-679.804,99.500,
            -2034.784,-708.310,101.750,
            -2026.296,-736.816,102.750,
            -2017.809,-765.322,103.750,
            -2009.321,-793.828,104.500,
            -2000.833,-822.334,102.500,
            -1992.345,-850.840,96.750,
            -1983.857,-879.346,89.750,
            -1975.369,-907.852,83.000,
            -1966.882,-936.358,76.000,
            -1958.394,-964.864,69.750,
            -1949.906,-993.370,64.750,
            -1941.418,-1021.876,61.250,
            -1932.930,-1050.382,55.250,
            -1924.442,-1078.888,46.000,
            -1915.954,-1107.394,35.250,
            -1907.467,-1135.900,22.750,
            -1898.979,-1164.406,15.000,
            -1890.491,-1192.912,11.500,
            -1882.003,-1221.418,7.500,
            -1873.515,-1249.924,3.750,
            -1865.027,-1278.430,1.000,
            -1856.540,-1306.936,-0.750,
            -1848.052,-1335.442,-2.000,
            -1839.564,-1363.947,-2.750,
            -1831.076,-1392.453,-3.250,
            -1822.588,-1420.959,-3.250,
            -1814.100,-1449.465,-2.500,
            -1805.613,-1477.971,-1.750,
            -1797.125,-1506.477,-1.500,
            -1788.637,-1534.983,-1.250,
            -1780.149,-1563.489,-1.000,
            -1771.661,-1591.995,-0.750,
            -1763.174,-1620.501,-0.250,
            -1754.686,-1649.007,0.000,
            -1746.198,-1677.513,0.000,
            -1737.710,-1706.019,0.000,
            -1729.222,-1734.525,0.000,
            -1720.734,-1763.031,0.000,
            -1712.247,-1791.537,0.000,
            -1703.759,-1820.043,0.000,
            -1695.271,-1848.549,0.000,
            -1686.783,-1877.055,0.000,
            -1678.295,-1905.561,0.000,
            -1669.808,-1934.067,0.000,
            -1661.320,-1962.573,0.000,
            -1652.832,-1991.079,0.000,
            -1644.344,-2019.585,0.000,
            -1635.856,-2048.091,0.000,
            -1627.368,-2076.597,0.000,
            -1618.881,-2105.103,0.000,
            -1610.393,-2133.609,0.000,
            -1601.905,-2162.115,0.000,
            -1593.417,-2190.621,0.000,
            -1584.929,-2219.127,0.000,
            -1576.442,-2247.633,0.000,
            -1567.954,-2276.139,0.000,
            -1559.466,-2304.645,0.000,
            -1550.978,-2333.151,0.000,
            -1542.490,-2361.657,0.000,
            -1534.003,-2390.163,0.000,
            -1525.515,-2418.669,0.000,
            -1517.027,-2447.175,0.000,
            -1508.539,-2475.681,0.000,
            -1500.051,-2504.187,0.000,
            -1491.564,-2532.693,0.000,
            -1483.076,-2561.199,0.000,
            -1474.588,-2589.705,0.000,
            -1466.100,-2618.211,0.000,
            -1457.613,-2646.717,0.000,
            -1449.125,-2675.223,0.000,
            -2481.037,896.353,42.500,
            -2472.549,867.847,42.000,
            -2464.062,839.341,40.500,
            -2455.574,810.835,38.250,
            -2447.086,782.329,35.500,
            -2438.598,753.823,33.250,
            -2430.110,725.317,31.500,
            -2421.622,696.811,30.000,